FoamFile
{
    version     2.3;
    format      ascii;
    class       dictionary;
    location    "system";
    object      decomposeParDict;
}
// * * * * * * * * * * * * * * * * * * * * * * * * * * * * * * * * * * * * * //

numberOfSubdomains 3;

//method		simple;
method          scotch;

simpleCoeffs
{
    n               (1 1 8);
    delta           0.001;
}

hierarchicalCoeffs
{
    n               (3 2 1);
    delta           0.001;
    order           xyz;
}

manualCoeffs
{
    dataFile        "cellDecomposition";
}


// ************************************************************************* //
